
---------- Begin Simulation Statistics ----------
sim_seconds                                  3.443343                       # Number of seconds simulated
sim_ticks                                3443343369451                       # Number of ticks simulated
final_tick                               39323813236154                       # Number of ticks from beginning of simulation (restored from checkpoints and never reset)
sim_freq                                 1000000000000                       # Frequency of simulated ticks
host_inst_rate                                  95284                       # Simulator instruction rate (inst/s)
host_op_rate                                   117893                       # Simulator op (including micro ops) rate (op/s)
host_tick_rate                            19167654005                       # Simulator tick rate (ticks/s)
host_mem_usage                                1516932                       # Number of bytes of host memory used
host_seconds                                   179.64                       # Real time elapsed on the host
sim_insts                                    17117103                       # Number of instructions simulated
sim_ops                                      21178781                       # Number of ops (including micro ops) simulated
system.voltage_domain.voltage                       1                       # Voltage in Volts
system.clk_domain.clock                          1000                       # Clock period in ticks
system.mem_ctrls.pwrStateResidencyTicks::UNDEFINED 39323813236154                       # Cumulative time (in ticks) in various power states
system.mem_ctrls.bytes_read::cpu.dtb.walker         9600                       # Number of bytes read from this memory
system.mem_ctrls.bytes_read::cpu.itb.walker         2688                       # Number of bytes read from this memory
system.mem_ctrls.bytes_read::cpu.inst          862464                       # Number of bytes read from this memory
system.mem_ctrls.bytes_read::cpu.data         1075328                       # Number of bytes read from this memory
system.mem_ctrls.bytes_read::realview.hdlcd   1761811840                       # Number of bytes read from this memory
system.mem_ctrls.bytes_read::total         1763761920                       # Number of bytes read from this memory
system.mem_ctrls.bytes_inst_read::cpu.inst       862464                       # Number of instructions bytes read from this memory
system.mem_ctrls.bytes_inst_read::total        862464                       # Number of instructions bytes read from this memory
system.mem_ctrls.bytes_written::writebacks       179456                       # Number of bytes written to this memory
system.mem_ctrls.bytes_written::cpu.data         8704                       # Number of bytes written to this memory
system.mem_ctrls.bytes_written::total          188160                       # Number of bytes written to this memory
system.mem_ctrls.num_reads::cpu.dtb.walker           75                       # Number of read requests responded to by this memory
system.mem_ctrls.num_reads::cpu.itb.walker           21                       # Number of read requests responded to by this memory
system.mem_ctrls.num_reads::cpu.inst             6738                       # Number of read requests responded to by this memory
system.mem_ctrls.num_reads::cpu.data             8401                       # Number of read requests responded to by this memory
system.mem_ctrls.num_reads::realview.hdlcd     27528310                       # Number of read requests responded to by this memory
system.mem_ctrls.num_reads::total            27543545                       # Number of read requests responded to by this memory
system.mem_ctrls.num_writes::writebacks          1402                       # Number of write requests responded to by this memory
system.mem_ctrls.num_writes::cpu.data            2176                       # Number of write requests responded to by this memory
system.mem_ctrls.num_writes::total               3578                       # Number of write requests responded to by this memory
system.mem_ctrls.bw_read::cpu.dtb.walker         2788                       # Total read bandwidth from this memory (bytes/s)
system.mem_ctrls.bw_read::cpu.itb.walker          781                       # Total read bandwidth from this memory (bytes/s)
system.mem_ctrls.bw_read::cpu.inst             250473                       # Total read bandwidth from this memory (bytes/s)
system.mem_ctrls.bw_read::cpu.data             312292                       # Total read bandwidth from this memory (bytes/s)
system.mem_ctrls.bw_read::realview.hdlcd    511657320                       # Total read bandwidth from this memory (bytes/s)
system.mem_ctrls.bw_read::total             512223653                       # Total read bandwidth from this memory (bytes/s)
system.mem_ctrls.bw_inst_read::cpu.inst        250473                       # Instruction read bandwidth from this memory (bytes/s)
system.mem_ctrls.bw_inst_read::total           250473                       # Instruction read bandwidth from this memory (bytes/s)
system.mem_ctrls.bw_write::writebacks           52117                       # Write bandwidth from this memory (bytes/s)
system.mem_ctrls.bw_write::cpu.data              2528                       # Write bandwidth from this memory (bytes/s)
system.mem_ctrls.bw_write::total                54645                       # Write bandwidth from this memory (bytes/s)
system.mem_ctrls.bw_total::writebacks           52117                       # Total bandwidth to/from this memory (bytes/s)
system.mem_ctrls.bw_total::cpu.dtb.walker         2788                       # Total bandwidth to/from this memory (bytes/s)
system.mem_ctrls.bw_total::cpu.itb.walker          781                       # Total bandwidth to/from this memory (bytes/s)
system.mem_ctrls.bw_total::cpu.inst            250473                       # Total bandwidth to/from this memory (bytes/s)
system.mem_ctrls.bw_total::cpu.data            314820                       # Total bandwidth to/from this memory (bytes/s)
system.mem_ctrls.bw_total::realview.hdlcd    511657320                       # Total bandwidth to/from this memory (bytes/s)
system.mem_ctrls.bw_total::total            512278298                       # Total bandwidth to/from this memory (bytes/s)
system.mem_ctrls.readReqs                    27543545                       # Number of read requests accepted
system.mem_ctrls.writeReqs                       3578                       # Number of write requests accepted
system.mem_ctrls.readBursts                  27558780                       # Number of DRAM read bursts, including those serviced by the write queue
system.mem_ctrls.writeBursts                     4980                       # Number of DRAM write bursts, including those merged in the write queue
system.mem_ctrls.bytesReadDRAM             1763755776                       # Total number of bytes read from DRAM
system.mem_ctrls.bytesReadWrQ                    6144                       # Total number of bytes read from write queue
system.mem_ctrls.bytesWritten                  185024                       # Total number of bytes written to DRAM
system.mem_ctrls.bytesReadSys              1763761920                       # Total read bytes from the system interface side
system.mem_ctrls.bytesWrittenSys               188160                       # Total written bytes from the system interface side
system.mem_ctrls.servicedByWrQ                     96                       # Number of DRAM read bursts serviced by the write queue
system.mem_ctrls.mergedWrBursts                  2057                       # Number of DRAM write bursts merged with an existing one
system.mem_ctrls.neitherReadNorWriteReqs            0                       # Number of requests that are neither read nor write
system.mem_ctrls.perBankRdBursts::0           1741460                       # Per bank write bursts
system.mem_ctrls.perBankRdBursts::1           1741470                       # Per bank write bursts
system.mem_ctrls.perBankRdBursts::2           1741610                       # Per bank write bursts
system.mem_ctrls.perBankRdBursts::3           1741918                       # Per bank write bursts
system.mem_ctrls.perBankRdBursts::4           1729152                       # Per bank write bursts
system.mem_ctrls.perBankRdBursts::5           1714482                       # Per bank write bursts
system.mem_ctrls.perBankRdBursts::6           1715759                       # Per bank write bursts
system.mem_ctrls.perBankRdBursts::7           1715592                       # Per bank write bursts
system.mem_ctrls.perBankRdBursts::8           1715683                       # Per bank write bursts
system.mem_ctrls.perBankRdBursts::9           1714856                       # Per bank write bursts
system.mem_ctrls.perBankRdBursts::10          1714991                       # Per bank write bursts
system.mem_ctrls.perBankRdBursts::11          1714644                       # Per bank write bursts
system.mem_ctrls.perBankRdBursts::12          1714250                       # Per bank write bursts
system.mem_ctrls.perBankRdBursts::13          1714193                       # Per bank write bursts
system.mem_ctrls.perBankRdBursts::14          1714182                       # Per bank write bursts
system.mem_ctrls.perBankRdBursts::15          1714442                       # Per bank write bursts
system.mem_ctrls.perBankWrBursts::0                41                       # Per bank write bursts
system.mem_ctrls.perBankWrBursts::1                81                       # Per bank write bursts
system.mem_ctrls.perBankWrBursts::2               287                       # Per bank write bursts
system.mem_ctrls.perBankWrBursts::3               300                       # Per bank write bursts
system.mem_ctrls.perBankWrBursts::4               387                       # Per bank write bursts
system.mem_ctrls.perBankWrBursts::5                32                       # Per bank write bursts
system.mem_ctrls.perBankWrBursts::6               346                       # Per bank write bursts
system.mem_ctrls.perBankWrBursts::7               286                       # Per bank write bursts
system.mem_ctrls.perBankWrBursts::8               396                       # Per bank write bursts
system.mem_ctrls.perBankWrBursts::9               230                       # Per bank write bursts
system.mem_ctrls.perBankWrBursts::10              270                       # Per bank write bursts
system.mem_ctrls.perBankWrBursts::11               38                       # Per bank write bursts
system.mem_ctrls.perBankWrBursts::12                5                       # Per bank write bursts
system.mem_ctrls.perBankWrBursts::13               71                       # Per bank write bursts
system.mem_ctrls.perBankWrBursts::14               70                       # Per bank write bursts
system.mem_ctrls.perBankWrBursts::15               51                       # Per bank write bursts
system.mem_ctrls.numRdRetry                         0                       # Number of times read queue was full causing retry
system.mem_ctrls.numWrRetry                         0                       # Number of times write queue was full causing retry
system.mem_ctrls.totGap                  3443343281785                       # Total gap between requests
system.mem_ctrls.readPktSize::0                     0                       # Read request sizes (log2)
system.mem_ctrls.readPktSize::1                     0                       # Read request sizes (log2)
system.mem_ctrls.readPktSize::2                     0                       # Read request sizes (log2)
system.mem_ctrls.readPktSize::3                     0                       # Read request sizes (log2)
system.mem_ctrls.readPktSize::4                     0                       # Read request sizes (log2)
system.mem_ctrls.readPktSize::5                     0                       # Read request sizes (log2)
system.mem_ctrls.readPktSize::6              27558780                       # Read request sizes (log2)
system.mem_ctrls.writePktSize::0                    0                       # Write request sizes (log2)
system.mem_ctrls.writePktSize::1                    0                       # Write request sizes (log2)
system.mem_ctrls.writePktSize::2                 2176                       # Write request sizes (log2)
system.mem_ctrls.writePktSize::3                    0                       # Write request sizes (log2)
system.mem_ctrls.writePktSize::4                    0                       # Write request sizes (log2)
system.mem_ctrls.writePktSize::5                    0                       # Write request sizes (log2)
system.mem_ctrls.writePktSize::6                 2804                       # Write request sizes (log2)
system.mem_ctrls.rdQLenPdf::0                13538452                       # What read queue length does an incoming req see
system.mem_ctrls.rdQLenPdf::1                13551630                       # What read queue length does an incoming req see
system.mem_ctrls.rdQLenPdf::2                  205596                       # What read queue length does an incoming req see
system.mem_ctrls.rdQLenPdf::3                  192605                       # What read queue length does an incoming req see
system.mem_ctrls.rdQLenPdf::4                   32231                       # What read queue length does an incoming req see
system.mem_ctrls.rdQLenPdf::5                   32080                       # What read queue length does an incoming req see
system.mem_ctrls.rdQLenPdf::6                     469                       # What read queue length does an incoming req see
system.mem_ctrls.rdQLenPdf::7                     423                       # What read queue length does an incoming req see
system.mem_ctrls.rdQLenPdf::8                    2591                       # What read queue length does an incoming req see
system.mem_ctrls.rdQLenPdf::9                     463                       # What read queue length does an incoming req see
system.mem_ctrls.rdQLenPdf::10                    433                       # What read queue length does an incoming req see
system.mem_ctrls.rdQLenPdf::11                    435                       # What read queue length does an incoming req see
system.mem_ctrls.rdQLenPdf::12                    425                       # What read queue length does an incoming req see
system.mem_ctrls.rdQLenPdf::13                    425                       # What read queue length does an incoming req see
system.mem_ctrls.rdQLenPdf::14                    425                       # What read queue length does an incoming req see
system.mem_ctrls.rdQLenPdf::15                      1                       # What read queue length does an incoming req see
system.mem_ctrls.rdQLenPdf::16                      0                       # What read queue length does an incoming req see
system.mem_ctrls.rdQLenPdf::17                      0                       # What read queue length does an incoming req see
system.mem_ctrls.rdQLenPdf::18                      0                       # What read queue length does an incoming req see
system.mem_ctrls.rdQLenPdf::19                      0                       # What read queue length does an incoming req see
system.mem_ctrls.rdQLenPdf::20                      0                       # What read queue length does an incoming req see
system.mem_ctrls.rdQLenPdf::21                      0                       # What read queue length does an incoming req see
system.mem_ctrls.rdQLenPdf::22                      0                       # What read queue length does an incoming req see
system.mem_ctrls.rdQLenPdf::23                      0                       # What read queue length does an incoming req see
system.mem_ctrls.rdQLenPdf::24                      0                       # What read queue length does an incoming req see
system.mem_ctrls.rdQLenPdf::25                      0                       # What read queue length does an incoming req see
system.mem_ctrls.rdQLenPdf::26                      0                       # What read queue length does an incoming req see
system.mem_ctrls.rdQLenPdf::27                      0                       # What read queue length does an incoming req see
system.mem_ctrls.rdQLenPdf::28                      0                       # What read queue length does an incoming req see
system.mem_ctrls.rdQLenPdf::29                      0                       # What read queue length does an incoming req see
system.mem_ctrls.rdQLenPdf::30                      0                       # What read queue length does an incoming req see
system.mem_ctrls.rdQLenPdf::31                      0                       # What read queue length does an incoming req see
system.mem_ctrls.wrQLenPdf::0                       1                       # What write queue length does an incoming req see
system.mem_ctrls.wrQLenPdf::1                       1                       # What write queue length does an incoming req see
system.mem_ctrls.wrQLenPdf::2                       1                       # What write queue length does an incoming req see
system.mem_ctrls.wrQLenPdf::3                       1                       # What write queue length does an incoming req see
system.mem_ctrls.wrQLenPdf::4                       1                       # What write queue length does an incoming req see
system.mem_ctrls.wrQLenPdf::5                       1                       # What write queue length does an incoming req see
system.mem_ctrls.wrQLenPdf::6                       1                       # What write queue length does an incoming req see
system.mem_ctrls.wrQLenPdf::7                       1                       # What write queue length does an incoming req see
system.mem_ctrls.wrQLenPdf::8                       1                       # What write queue length does an incoming req see
system.mem_ctrls.wrQLenPdf::9                       1                       # What write queue length does an incoming req see
system.mem_ctrls.wrQLenPdf::10                      1                       # What write queue length does an incoming req see
system.mem_ctrls.wrQLenPdf::11                      1                       # What write queue length does an incoming req see
system.mem_ctrls.wrQLenPdf::12                      1                       # What write queue length does an incoming req see
system.mem_ctrls.wrQLenPdf::13                      1                       # What write queue length does an incoming req see
system.mem_ctrls.wrQLenPdf::14                      1                       # What write queue length does an incoming req see
system.mem_ctrls.wrQLenPdf::15                     70                       # What write queue length does an incoming req see
system.mem_ctrls.wrQLenPdf::16                     72                       # What write queue length does an incoming req see
system.mem_ctrls.wrQLenPdf::17                    157                       # What write queue length does an incoming req see
system.mem_ctrls.wrQLenPdf::18                    165                       # What write queue length does an incoming req see
system.mem_ctrls.wrQLenPdf::19                    170                       # What write queue length does an incoming req see
system.mem_ctrls.wrQLenPdf::20                    171                       # What write queue length does an incoming req see
system.mem_ctrls.wrQLenPdf::21                    172                       # What write queue length does an incoming req see
system.mem_ctrls.wrQLenPdf::22                    170                       # What write queue length does an incoming req see
system.mem_ctrls.wrQLenPdf::23                    176                       # What write queue length does an incoming req see
system.mem_ctrls.wrQLenPdf::24                    176                       # What write queue length does an incoming req see
system.mem_ctrls.wrQLenPdf::25                    172                       # What write queue length does an incoming req see
system.mem_ctrls.wrQLenPdf::26                    172                       # What write queue length does an incoming req see
system.mem_ctrls.wrQLenPdf::27                    173                       # What write queue length does an incoming req see
system.mem_ctrls.wrQLenPdf::28                    179                       # What write queue length does an incoming req see
system.mem_ctrls.wrQLenPdf::29                    174                       # What write queue length does an incoming req see
system.mem_ctrls.wrQLenPdf::30                    172                       # What write queue length does an incoming req see
system.mem_ctrls.wrQLenPdf::31                    171                       # What write queue length does an incoming req see
system.mem_ctrls.wrQLenPdf::32                    170                       # What write queue length does an incoming req see
system.mem_ctrls.wrQLenPdf::33                     12                       # What write queue length does an incoming req see
system.mem_ctrls.wrQLenPdf::34                      3                       # What write queue length does an incoming req see
system.mem_ctrls.wrQLenPdf::35                      1                       # What write queue length does an incoming req see
system.mem_ctrls.wrQLenPdf::36                      1                       # What write queue length does an incoming req see
system.mem_ctrls.wrQLenPdf::37                      1                       # What write queue length does an incoming req see
system.mem_ctrls.wrQLenPdf::38                      1                       # What write queue length does an incoming req see
system.mem_ctrls.wrQLenPdf::39                      1                       # What write queue length does an incoming req see
system.mem_ctrls.wrQLenPdf::40                      1                       # What write queue length does an incoming req see
system.mem_ctrls.wrQLenPdf::41                      1                       # What write queue length does an incoming req see
system.mem_ctrls.wrQLenPdf::42                      1                       # What write queue length does an incoming req see
system.mem_ctrls.wrQLenPdf::43                      1                       # What write queue length does an incoming req see
system.mem_ctrls.wrQLenPdf::44                      1                       # What write queue length does an incoming req see
system.mem_ctrls.wrQLenPdf::45                      1                       # What write queue length does an incoming req see
system.mem_ctrls.wrQLenPdf::46                      0                       # What write queue length does an incoming req see
system.mem_ctrls.wrQLenPdf::47                      0                       # What write queue length does an incoming req see
system.mem_ctrls.wrQLenPdf::48                      0                       # What write queue length does an incoming req see
system.mem_ctrls.wrQLenPdf::49                      0                       # What write queue length does an incoming req see
system.mem_ctrls.wrQLenPdf::50                      0                       # What write queue length does an incoming req see
system.mem_ctrls.wrQLenPdf::51                      0                       # What write queue length does an incoming req see
system.mem_ctrls.wrQLenPdf::52                      0                       # What write queue length does an incoming req see
system.mem_ctrls.wrQLenPdf::53                      0                       # What write queue length does an incoming req see
system.mem_ctrls.wrQLenPdf::54                      0                       # What write queue length does an incoming req see
system.mem_ctrls.wrQLenPdf::55                      0                       # What write queue length does an incoming req see
system.mem_ctrls.wrQLenPdf::56                      0                       # What write queue length does an incoming req see
system.mem_ctrls.wrQLenPdf::57                      0                       # What write queue length does an incoming req see
system.mem_ctrls.wrQLenPdf::58                      0                       # What write queue length does an incoming req see
system.mem_ctrls.wrQLenPdf::59                      0                       # What write queue length does an incoming req see
system.mem_ctrls.wrQLenPdf::60                      0                       # What write queue length does an incoming req see
system.mem_ctrls.wrQLenPdf::61                      0                       # What write queue length does an incoming req see
system.mem_ctrls.wrQLenPdf::62                      0                       # What write queue length does an incoming req see
system.mem_ctrls.wrQLenPdf::63                      0                       # What write queue length does an incoming req see
system.mem_ctrls.bytesPerActivate::samples      2003508                       # Bytes accessed per row activation
system.mem_ctrls.bytesPerActivate::mean    880.425685                       # Bytes accessed per row activation
system.mem_ctrls.bytesPerActivate::gmean   808.080095                       # Bytes accessed per row activation
system.mem_ctrls.bytesPerActivate::stdev   261.112911                       # Bytes accessed per row activation
system.mem_ctrls.bytesPerActivate::0-127          161      0.01%      0.01% # Bytes accessed per row activation
system.mem_ctrls.bytesPerActivate::128-255        77538      3.87%      3.88% # Bytes accessed per row activation
system.mem_ctrls.bytesPerActivate::256-383        67385      3.36%      7.24% # Bytes accessed per row activation
system.mem_ctrls.bytesPerActivate::384-511        75569      3.77%     11.01% # Bytes accessed per row activation
system.mem_ctrls.bytesPerActivate::512-639        73712      3.68%     14.69% # Bytes accessed per row activation
system.mem_ctrls.bytesPerActivate::640-767       125525      6.27%     20.96% # Bytes accessed per row activation
system.mem_ctrls.bytesPerActivate::768-895        88095      4.40%     25.35% # Bytes accessed per row activation
system.mem_ctrls.bytesPerActivate::896-1023        73592      3.67%     29.03% # Bytes accessed per row activation
system.mem_ctrls.bytesPerActivate::1024-1151      1421931     70.97%    100.00% # Bytes accessed per row activation
system.mem_ctrls.bytesPerActivate::total      2003508                       # Bytes accessed per row activation
system.mem_ctrls.rdPerTurnAround::samples          170                       # Reads before turning the bus around for writes
system.mem_ctrls.rdPerTurnAround::mean   152890.741176                       # Reads before turning the bus around for writes
system.mem_ctrls.rdPerTurnAround::gmean    198.051188                       # Reads before turning the bus around for writes
system.mem_ctrls.rdPerTurnAround::stdev  907755.625813                       # Reads before turning the bus around for writes
system.mem_ctrls.rdPerTurnAround::0-524287          160     94.12%     94.12% # Reads before turning the bus around for writes
system.mem_ctrls.rdPerTurnAround::524288-1.04858e+06            2      1.18%     95.29% # Reads before turning the bus around for writes
system.mem_ctrls.rdPerTurnAround::1.04858e+06-1.57286e+06            2      1.18%     96.47% # Reads before turning the bus around for writes
system.mem_ctrls.rdPerTurnAround::1.57286e+06-2.09715e+06            2      1.18%     97.65% # Reads before turning the bus around for writes
system.mem_ctrls.rdPerTurnAround::2.09715e+06-2.62144e+06            1      0.59%     98.24% # Reads before turning the bus around for writes
system.mem_ctrls.rdPerTurnAround::2.62144e+06-3.14573e+06            2      1.18%     99.41% # Reads before turning the bus around for writes
system.mem_ctrls.rdPerTurnAround::1.04858e+07-1.101e+07            1      0.59%    100.00% # Reads before turning the bus around for writes
system.mem_ctrls.rdPerTurnAround::total           170                       # Reads before turning the bus around for writes
system.mem_ctrls.wrPerTurnAround::samples          170                       # Writes before turning the bus around for reads
system.mem_ctrls.wrPerTurnAround::mean      17.005882                       # Writes before turning the bus around for reads
system.mem_ctrls.wrPerTurnAround::gmean     16.942713                       # Writes before turning the bus around for reads
system.mem_ctrls.wrPerTurnAround::stdev      1.629960                       # Writes before turning the bus around for reads
system.mem_ctrls.wrPerTurnAround::16               96     56.47%     56.47% # Writes before turning the bus around for reads
system.mem_ctrls.wrPerTurnAround::17                4      2.35%     58.82% # Writes before turning the bus around for reads
system.mem_ctrls.wrPerTurnAround::18               63     37.06%     95.88% # Writes before turning the bus around for reads
system.mem_ctrls.wrPerTurnAround::19                3      1.76%     97.65% # Writes before turning the bus around for reads
system.mem_ctrls.wrPerTurnAround::20                2      1.18%     98.82% # Writes before turning the bus around for reads
system.mem_ctrls.wrPerTurnAround::25                1      0.59%     99.41% # Writes before turning the bus around for reads
system.mem_ctrls.wrPerTurnAround::31                1      0.59%    100.00% # Writes before turning the bus around for reads
system.mem_ctrls.wrPerTurnAround::total           170                       # Writes before turning the bus around for reads
system.mem_ctrls.totQLat                 468092614200                       # Total ticks spent queuing
system.mem_ctrls.totMemAccLat            984817939200                       # Total ticks spent from burst creation until serviced by the DRAM
system.mem_ctrls.totBusLat               137793420000                       # Total ticks spent in databus transfers
system.mem_ctrls.avgQLat                     16985.30                       # Average queueing delay per DRAM burst
system.mem_ctrls.avgBusLat                    5000.00                       # Average bus latency per DRAM burst
system.mem_ctrls.avgMemAccLat                35735.30                       # Average memory access latency per DRAM burst
system.mem_ctrls.avgRdBW                       512.22                       # Average DRAM read bandwidth in MiByte/s
system.mem_ctrls.avgWrBW                         0.05                       # Average achieved write bandwidth in MiByte/s
system.mem_ctrls.avgRdBWSys                    512.22                       # Average system read bandwidth in MiByte/s
system.mem_ctrls.avgWrBWSys                      0.05                       # Average system write bandwidth in MiByte/s
system.mem_ctrls.peakBW                      12800.00                       # Theoretical peak bandwidth in MiByte/s
system.mem_ctrls.busUtil                         4.00                       # Data bus utilization in percentage
system.mem_ctrls.busUtilRead                     4.00                       # Data bus utilization in percentage for reads
system.mem_ctrls.busUtilWrite                    0.00                       # Data bus utilization in percentage for writes
system.mem_ctrls.avgRdQLen                       2.06                       # Average read queue length when enqueuing
system.mem_ctrls.avgWrQLen                      22.73                       # Average write queue length when enqueuing
system.mem_ctrls.readRowHits                 25555887                       # Number of row buffer hits during reads
system.mem_ctrls.writeRowHits                    2179                       # Number of row buffer hits during writes
system.mem_ctrls.readRowHitRate                 92.73                       # Row buffer hit rate for reads
system.mem_ctrls.writeRowHitRate                74.55                       # Row buffer hit rate for writes
system.mem_ctrls.avgGap                     124998.29                       # Average gap between requests
system.mem_ctrls.pageHitRate                    92.73                       # Row buffer hit rate, read and write combined
system.mem_ctrls_0.actEnergy               7183225560                       # Energy for activate commands per rank (pJ)
system.mem_ctrls_0.preEnergy               3817974930                       # Energy for precharge commands per rank (pJ)
system.mem_ctrls_0.readEnergy             98827903020                       # Energy for read commands per rank (pJ)
system.mem_ctrls_0.writeEnergy                9187200                       # Energy for write commands per rank (pJ)
system.mem_ctrls_0.refreshEnergy         150302221680.000031                       # Energy for refresh commands per rank (pJ)
system.mem_ctrls_0.actBackEnergy         124636149840                       # Energy for active background per rank (pJ)
system.mem_ctrls_0.preBackEnergy           9568652640                       # Energy for precharge background per rank (pJ)
system.mem_ctrls_0.actPowerDownEnergy    571847381970                       # Energy for active power-down per rank (pJ)
system.mem_ctrls_0.prePowerDownEnergy     91174609440                       # Energy for precharge power-down per rank (pJ)
system.mem_ctrls_0.selfRefreshEnergy     405584119410                       # Energy for self refresh per rank (pJ)
system.mem_ctrls_0.totalEnergy           1463035551810                       # Total energy per rank (pJ)
system.mem_ctrls_0.averagePower            424.888080                       # Core power per rank (mW)
system.mem_ctrls_0.totalIdleTime         3144917923569                       # Total Idle time Per DRAM Rank
system.mem_ctrls_0.memoryStateTime::IDLE   9347897762                       # Time in different power states
system.mem_ctrls_0.memoryStateTime::REF   63680438000                       # Time in different power states
system.mem_ctrls_0.memoryStateTime::SREF 1653428571951                       # Time in different power states
system.mem_ctrls_0.memoryStateTime::PRE_PDN 237433554183                       # Time in different power states
system.mem_ctrls_0.memoryStateTime::ACT  225383883486                       # Time in different power states
system.mem_ctrls_0.memoryStateTime::ACT_PDN 1254069024069                       # Time in different power states
system.mem_ctrls_1.actEnergy               7121828700                       # Energy for activate commands per rank (pJ)
system.mem_ctrls_1.preEnergy               3785337930                       # Energy for precharge commands per rank (pJ)
system.mem_ctrls_1.readEnergy             97941100740                       # Energy for read commands per rank (pJ)
system.mem_ctrls_1.writeEnergy                5903820                       # Energy for write commands per rank (pJ)
system.mem_ctrls_1.refreshEnergy         148741650720.000031                       # Energy for refresh commands per rank (pJ)
system.mem_ctrls_1.actBackEnergy         123178617090                       # Energy for active background per rank (pJ)
system.mem_ctrls_1.preBackEnergy           9442515360                       # Energy for precharge background per rank (pJ)
system.mem_ctrls_1.actPowerDownEnergy    567271165470                       # Energy for active power-down per rank (pJ)
system.mem_ctrls_1.prePowerDownEnergy     90507894240                       # Energy for precharge power-down per rank (pJ)
system.mem_ctrls_1.selfRefreshEnergy     408915100665                       # Energy for self refresh per rank (pJ)
system.mem_ctrls_1.totalEnergy           1456994983635                       # Total energy per rank (pJ)
system.mem_ctrls_1.averagePower            423.133806                       # Core power per rank (mW)
system.mem_ctrls_1.totalIdleTime         3148427595650                       # Total Idle time Per DRAM Rank
system.mem_ctrls_1.memoryStateTime::IDLE   9151728615                       # Time in different power states
system.mem_ctrls_1.memoryStateTime::REF   63015312000                       # Time in different power states
system.mem_ctrls_1.memoryStateTime::SREF 1668725349493                       # Time in different power states
system.mem_ctrls_1.memoryStateTime::PRE_PDN 235695129241                       # Time in different power states
system.mem_ctrls_1.memoryStateTime::ACT  222748681044                       # Time in different power states
system.mem_ctrls_1.memoryStateTime::ACT_PDN 1244007169058                       # Time in different power states
system.realview.nvmem.pwrStateResidencyTicks::UNDEFINED 39323813236154                       # Cumulative time (in ticks) in various power states
system.pwrStateResidencyTicks::UNDEFINED 39323813236154                       # Cumulative time (in ticks) in various power states
system.realview.pci_host.pwrStateResidencyTicks::UNDEFINED 39323813236154                       # Cumulative time (in ticks) in various power states
system.Root_Complex.pwrStateResidencyTicks::UNDEFINED 39323813236154                       # Cumulative time (in ticks) in various power states
system.bridge.pwrStateResidencyTicks::UNDEFINED 39323813236154                       # Cumulative time (in ticks) in various power states
system.cf0.dma_read_full_pages                      0                       # Number of full page size DMA reads (not PRD).
system.cf0.dma_read_bytes                           0                       # Number of bytes transfered via DMA reads (not PRD).
system.cf0.dma_read_txs                             0                       # Number of DMA read transactions (not PRD).
system.cf0.dma_write_full_pages                    17                       # Number of full page size DMA writes.
system.cf0.dma_write_bytes                      84992                       # Number of bytes transfered via DMA writes.
system.cf0.dma_write_txs                           28                       # Number of DMA write transactions.
system.cpu.branchPred.lookups                 5103243                       # Number of BP lookups
system.cpu.branchPred.condPredicted           3147460                       # Number of conditional branches predicted
system.cpu.branchPred.condIncorrect            168951                       # Number of conditional branches incorrect
system.cpu.branchPred.BTBLookups              3148377                       # Number of BTB lookups
system.cpu.branchPred.BTBHits                 2041897                       # Number of BTB hits
system.cpu.branchPred.BTBCorrect                    0                       # Number of correct BTB predictions (this stat may not work properly.
system.cpu.branchPred.BTBHitPct             64.855543                       # BTB Hit Percentage
system.cpu.branchPred.usedRAS                  798921                       # Number of times the RAS was used to get a target.
system.cpu.branchPred.RASInCorrect              17006                       # Number of incorrect RAS predictions.
system.cpu.branchPred.indirectLookups          373539                       # Number of indirect predictor lookups.
system.cpu.branchPred.indirectHits             255358                       # Number of indirect target hits.
system.cpu.branchPred.indirectMisses           118181                       # Number of indirect misses.
system.cpu.branchPredindirectMispredicted        12501                       # Number of mispredicted indirect branches.
system.cpu_voltage_domain.voltage                   1                       # Voltage in Volts
system.cpu_clk_domain.clock                       313                       # Clock period in ticks
system.cpu.dstage2_mmu.stage2_tlb.walker.pwrStateResidencyTicks::UNDEFINED 39323813236154                       # Cumulative time (in ticks) in various power states
system.cpu.dstage2_mmu.stage2_tlb.walker.walks            0                       # Table walker walks requested
system.cpu.dstage2_mmu.stage2_tlb.walker.walkRequestOrigin_Requested::Data            0                       # Table walker requests started/completed, data/inst
system.cpu.dstage2_mmu.stage2_tlb.walker.walkRequestOrigin_Requested::Inst            0                       # Table walker requests started/completed, data/inst
system.cpu.dstage2_mmu.stage2_tlb.walker.walkRequestOrigin_Requested::total            0                       # Table walker requests started/completed, data/inst
system.cpu.dstage2_mmu.stage2_tlb.walker.walkRequestOrigin_Completed::Data            0                       # Table walker requests started/completed, data/inst
system.cpu.dstage2_mmu.stage2_tlb.walker.walkRequestOrigin_Completed::Inst            0                       # Table walker requests started/completed, data/inst
system.cpu.dstage2_mmu.stage2_tlb.walker.walkRequestOrigin_Completed::total            0                       # Table walker requests started/completed, data/inst
system.cpu.dstage2_mmu.stage2_tlb.walker.walkRequestOrigin::total            0                       # Table walker requests started/completed, data/inst
system.cpu.dstage2_mmu.stage2_tlb.inst_hits            0                       # ITB inst hits
system.cpu.dstage2_mmu.stage2_tlb.inst_misses            0                       # ITB inst misses
system.cpu.dstage2_mmu.stage2_tlb.read_hits            0                       # DTB read hits
system.cpu.dstage2_mmu.stage2_tlb.read_misses            0                       # DTB read misses
system.cpu.dstage2_mmu.stage2_tlb.write_hits            0                       # DTB write hits
system.cpu.dstage2_mmu.stage2_tlb.write_misses            0                       # DTB write misses
system.cpu.dstage2_mmu.stage2_tlb.flush_tlb            0                       # Number of times complete TLB was flushed
system.cpu.dstage2_mmu.stage2_tlb.flush_tlb_mva            0                       # Number of times TLB was flushed by MVA
system.cpu.dstage2_mmu.stage2_tlb.flush_tlb_mva_asid            0                       # Number of times TLB was flushed by MVA & ASID
system.cpu.dstage2_mmu.stage2_tlb.flush_tlb_asid            0                       # Number of times TLB was flushed by ASID
system.cpu.dstage2_mmu.stage2_tlb.flush_entries            0                       # Number of entries that have been flushed from TLB
system.cpu.dstage2_mmu.stage2_tlb.align_faults            0                       # Number of TLB faults due to alignment restrictions
system.cpu.dstage2_mmu.stage2_tlb.prefetch_faults            0                       # Number of TLB faults due to prefetch
system.cpu.dstage2_mmu.stage2_tlb.domain_faults            0                       # Number of TLB faults due to domain restrictions
system.cpu.dstage2_mmu.stage2_tlb.perms_faults            0                       # Number of TLB faults due to permissions restrictions
system.cpu.dstage2_mmu.stage2_tlb.read_accesses            0                       # DTB read accesses
system.cpu.dstage2_mmu.stage2_tlb.write_accesses            0                       # DTB write accesses
system.cpu.dstage2_mmu.stage2_tlb.inst_accesses            0                       # ITB inst accesses
system.cpu.dstage2_mmu.stage2_tlb.hits              0                       # DTB hits
system.cpu.dstage2_mmu.stage2_tlb.misses            0                       # DTB misses
system.cpu.dstage2_mmu.stage2_tlb.accesses            0                       # DTB accesses
system.cpu.dtb.walker.pwrStateResidencyTicks::UNDEFINED 39323813236154                       # Cumulative time (in ticks) in various power states
system.cpu.dtb.walker.walks                     24488                       # Table walker walks requested
system.cpu.dtb.walker.walksShort                24488                       # Table walker walks initiated with short descriptors
system.cpu.dtb.walker.walksShortTerminationLevel::Level1         1495                       # Level at which table walker walks with short descriptors terminate
system.cpu.dtb.walker.walksShortTerminationLevel::Level2         8785                       # Level at which table walker walks with short descriptors terminate
system.cpu.dtb.walker.walksSquashedBefore        14208                       # Table walks squashed before starting
system.cpu.dtb.walker.walkWaitTime::samples        10280                       # Table walker wait (enqueue to first request) latency
system.cpu.dtb.walker.walkWaitTime::mean   800.311770                       # Table walker wait (enqueue to first request) latency
system.cpu.dtb.walker.walkWaitTime::stdev  5192.265327                       # Table walker wait (enqueue to first request) latency
system.cpu.dtb.walker.walkWaitTime::0-16383        10191     99.13%     99.13% # Table walker wait (enqueue to first request) latency
system.cpu.dtb.walker.walkWaitTime::16384-32767           43      0.42%     99.55% # Table walker wait (enqueue to first request) latency
system.cpu.dtb.walker.walkWaitTime::32768-49151           16      0.16%     99.71% # Table walker wait (enqueue to first request) latency
system.cpu.dtb.walker.walkWaitTime::49152-65535           14      0.14%     99.84% # Table walker wait (enqueue to first request) latency
system.cpu.dtb.walker.walkWaitTime::65536-81919            7      0.07%     99.91% # Table walker wait (enqueue to first request) latency
system.cpu.dtb.walker.walkWaitTime::81920-98303            5      0.05%     99.96% # Table walker wait (enqueue to first request) latency
system.cpu.dtb.walker.walkWaitTime::98304-114687            3      0.03%     99.99% # Table walker wait (enqueue to first request) latency
system.cpu.dtb.walker.walkWaitTime::180224-196607            1      0.01%    100.00% # Table walker wait (enqueue to first request) latency
system.cpu.dtb.walker.walkWaitTime::total        10280                       # Table walker wait (enqueue to first request) latency
system.cpu.dtb.walker.walkCompletionTime::samples        10730                       # Table walker service (enqueue to completion) latency
system.cpu.dtb.walker.walkCompletionTime::mean 11418.490867                       # Table walker service (enqueue to completion) latency
system.cpu.dtb.walker.walkCompletionTime::gmean  9119.239362                       # Table walker service (enqueue to completion) latency
system.cpu.dtb.walker.walkCompletionTime::stdev 14399.026908                       # Table walker service (enqueue to completion) latency
system.cpu.dtb.walker.walkCompletionTime::0-65535        10620     98.97%     98.97% # Table walker service (enqueue to completion) latency
system.cpu.dtb.walker.walkCompletionTime::65536-131071           87      0.81%     99.79% # Table walker service (enqueue to completion) latency
system.cpu.dtb.walker.walkCompletionTime::131072-196607            5      0.05%     99.83% # Table walker service (enqueue to completion) latency
system.cpu.dtb.walker.walkCompletionTime::196608-262143           15      0.14%     99.97% # Table walker service (enqueue to completion) latency
system.cpu.dtb.walker.walkCompletionTime::262144-327679            1      0.01%     99.98% # Table walker service (enqueue to completion) latency
system.cpu.dtb.walker.walkCompletionTime::327680-393215            1      0.01%     99.99% # Table walker service (enqueue to completion) latency
system.cpu.dtb.walker.walkCompletionTime::589824-655359            1      0.01%    100.00% # Table walker service (enqueue to completion) latency
system.cpu.dtb.walker.walkCompletionTime::total        10730                       # Table walker service (enqueue to completion) latency
system.cpu.dtb.walker.walksPending::samples -163819107229                       # Table walker pending requests distribution
system.cpu.dtb.walker.walksPending::mean     0.130359                       # Table walker pending requests distribution
system.cpu.dtb.walker.walksPending::stdev     0.325139                       # Table walker pending requests distribution
system.cpu.dtb.walker.walksPending::0-3  -163830776808    100.01%    100.01% # Table walker pending requests distribution
system.cpu.dtb.walker.walksPending::4-7       6993046     -0.00%    100.00% # Table walker pending requests distribution
system.cpu.dtb.walker.walksPending::8-11      1964388     -0.00%    100.00% # Table walker pending requests distribution
system.cpu.dtb.walker.walksPending::12-15      1553106     -0.00%    100.00% # Table walker pending requests distribution
system.cpu.dtb.walker.walksPending::16-19       569973     -0.00%    100.00% # Table walker pending requests distribution
system.cpu.dtb.walker.walksPending::20-23       127391     -0.00%    100.00% # Table walker pending requests distribution
system.cpu.dtb.walker.walksPending::24-27       333971     -0.00%    100.00% # Table walker pending requests distribution
system.cpu.dtb.walker.walksPending::28-31       126452     -0.00%    100.00% # Table walker pending requests distribution
system.cpu.dtb.walker.walksPending::32-35         1252     -0.00%    100.00% # Table walker pending requests distribution
system.cpu.dtb.walker.walksPending::total -163819107229                       # Table walker pending requests distribution
system.cpu.dtb.walker.walkPageSizes::4K          2910     76.60%     76.60% # Table walker page sizes translated
system.cpu.dtb.walker.walkPageSizes::1M           889     23.40%    100.00% # Table walker page sizes translated
system.cpu.dtb.walker.walkPageSizes::total         3799                       # Table walker page sizes translated
system.cpu.dtb.walker.walkRequestOrigin_Requested::Data        24488                       # Table walker requests started/completed, data/inst
system.cpu.dtb.walker.walkRequestOrigin_Requested::Inst            0                       # Table walker requests started/completed, data/inst
system.cpu.dtb.walker.walkRequestOrigin_Requested::total        24488                       # Table walker requests started/completed, data/inst
system.cpu.dtb.walker.walkRequestOrigin_Completed::Data         3799                       # Table walker requests started/completed, data/inst
system.cpu.dtb.walker.walkRequestOrigin_Completed::Inst            0                       # Table walker requests started/completed, data/inst
system.cpu.dtb.walker.walkRequestOrigin_Completed::total         3799                       # Table walker requests started/completed, data/inst
system.cpu.dtb.walker.walkRequestOrigin::total        28287                       # Table walker requests started/completed, data/inst
system.cpu.dtb.inst_hits                            0                       # ITB inst hits
system.cpu.dtb.inst_misses                          0                       # ITB inst misses
system.cpu.dtb.read_hits                      4788799                       # DTB read hits
system.cpu.dtb.read_misses                      19260                       # DTB read misses
system.cpu.dtb.write_hits                     3524482                       # DTB write hits
system.cpu.dtb.write_misses                      5228                       # DTB write misses
system.cpu.dtb.flush_tlb                            0                       # Number of times complete TLB was flushed
system.cpu.dtb.flush_tlb_mva                        0                       # Number of times TLB was flushed by MVA
system.cpu.dtb.flush_tlb_mva_asid                 189                       # Number of times TLB was flushed by MVA & ASID
system.cpu.dtb.flush_tlb_asid                       7                       # Number of times TLB was flushed by ASID
system.cpu.dtb.flush_entries                      512                       # Number of entries that have been flushed from TLB
system.cpu.dtb.align_faults                       878                       # Number of TLB faults due to alignment restrictions
system.cpu.dtb.prefetch_faults                   1094                       # Number of TLB faults due to prefetch
system.cpu.dtb.domain_faults                      166                       # Number of TLB faults due to domain restrictions
system.cpu.dtb.perms_faults                       518                       # Number of TLB faults due to permissions restrictions
system.cpu.dtb.read_accesses                  4808059                       # DTB read accesses
system.cpu.dtb.write_accesses                 3529710                       # DTB write accesses
system.cpu.dtb.inst_accesses                        0                       # ITB inst accesses
system.cpu.dtb.hits                           8313281                       # DTB hits
system.cpu.dtb.misses                           24488                       # DTB misses
system.cpu.dtb.accesses                       8337769                       # DTB accesses
system.cpu.istage2_mmu.stage2_tlb.walker.pwrStateResidencyTicks::UNDEFINED 39323813236154                       # Cumulative time (in ticks) in various power states
system.cpu.istage2_mmu.stage2_tlb.walker.walks            0                       # Table walker walks requested
system.cpu.istage2_mmu.stage2_tlb.walker.walkRequestOrigin_Requested::Data            0                       # Table walker requests started/completed, data/inst
system.cpu.istage2_mmu.stage2_tlb.walker.walkRequestOrigin_Requested::Inst            0                       # Table walker requests started/completed, data/inst
system.cpu.istage2_mmu.stage2_tlb.walker.walkRequestOrigin_Requested::total            0                       # Table walker requests started/completed, data/inst
system.cpu.istage2_mmu.stage2_tlb.walker.walkRequestOrigin_Completed::Data            0                       # Table walker requests started/completed, data/inst
system.cpu.istage2_mmu.stage2_tlb.walker.walkRequestOrigin_Completed::Inst            0                       # Table walker requests started/completed, data/inst
system.cpu.istage2_mmu.stage2_tlb.walker.walkRequestOrigin_Completed::total            0                       # Table walker requests started/completed, data/inst
system.cpu.istage2_mmu.stage2_tlb.walker.walkRequestOrigin::total            0                       # Table walker requests started/completed, data/inst
system.cpu.istage2_mmu.stage2_tlb.inst_hits            0                       # ITB inst hits
system.cpu.istage2_mmu.stage2_tlb.inst_misses            0                       # ITB inst misses
system.cpu.istage2_mmu.stage2_tlb.read_hits            0                       # DTB read hits
system.cpu.istage2_mmu.stage2_tlb.read_misses            0                       # DTB read misses
system.cpu.istage2_mmu.stage2_tlb.write_hits            0                       # DTB write hits
system.cpu.istage2_mmu.stage2_tlb.write_misses            0                       # DTB write misses
system.cpu.istage2_mmu.stage2_tlb.flush_tlb            0                       # Number of times complete TLB was flushed
system.cpu.istage2_mmu.stage2_tlb.flush_tlb_mva            0                       # Number of times TLB was flushed by MVA
system.cpu.istage2_mmu.stage2_tlb.flush_tlb_mva_asid            0                       # Number of times TLB was flushed by MVA & ASID
system.cpu.istage2_mmu.stage2_tlb.flush_tlb_asid            0                       # Number of times TLB was flushed by ASID
system.cpu.istage2_mmu.stage2_tlb.flush_entries            0                       # Number of entries that have been flushed from TLB
system.cpu.istage2_mmu.stage2_tlb.align_faults            0                       # Number of TLB faults due to alignment restrictions
system.cpu.istage2_mmu.stage2_tlb.prefetch_faults            0                       # Number of TLB faults due to prefetch
system.cpu.istage2_mmu.stage2_tlb.domain_faults            0                       # Number of TLB faults due to domain restrictions
system.cpu.istage2_mmu.stage2_tlb.perms_faults            0                       # Number of TLB faults due to permissions restrictions
system.cpu.istage2_mmu.stage2_tlb.read_accesses            0                       # DTB read accesses
system.cpu.istage2_mmu.stage2_tlb.write_accesses            0                       # DTB write accesses
system.cpu.istage2_mmu.stage2_tlb.inst_accesses            0                       # ITB inst accesses
system.cpu.istage2_mmu.stage2_tlb.hits              0                       # DTB hits
system.cpu.istage2_mmu.stage2_tlb.misses            0                       # DTB misses
system.cpu.istage2_mmu.stage2_tlb.accesses            0                       # DTB accesses
system.cpu.itb.walker.pwrStateResidencyTicks::UNDEFINED 39323813236154                       # Cumulative time (in ticks) in various power states
system.cpu.itb.walker.walks                      1681                       # Table walker walks requested
system.cpu.itb.walker.walksShort                 1681                       # Table walker walks initiated with short descriptors
system.cpu.itb.walker.walksShortTerminationLevel::Level1          167                       # Level at which table walker walks with short descriptors terminate
system.cpu.itb.walker.walksShortTerminationLevel::Level2         1366                       # Level at which table walker walks with short descriptors terminate
system.cpu.itb.walker.walksSquashedBefore          148                       # Table walks squashed before starting
system.cpu.itb.walker.walkWaitTime::samples         1533                       # Table walker wait (enqueue to first request) latency
system.cpu.itb.walker.walkWaitTime::mean   591.290280                       # Table walker wait (enqueue to first request) latency
system.cpu.itb.walker.walkWaitTime::stdev  3167.825340                       # Table walker wait (enqueue to first request) latency
system.cpu.itb.walker.walkWaitTime::0-8191         1488     97.06%     97.06% # Table walker wait (enqueue to first request) latency
system.cpu.itb.walker.walkWaitTime::8192-16383           39      2.54%     99.61% # Table walker wait (enqueue to first request) latency
system.cpu.itb.walker.walkWaitTime::16384-24575            5      0.33%     99.93% # Table walker wait (enqueue to first request) latency
system.cpu.itb.walker.walkWaitTime::73728-81919            1      0.07%    100.00% # Table walker wait (enqueue to first request) latency
system.cpu.itb.walker.walkWaitTime::total         1533                       # Table walker wait (enqueue to first request) latency
system.cpu.itb.walker.walkCompletionTime::samples         1098                       # Table walker service (enqueue to completion) latency
system.cpu.itb.walker.walkCompletionTime::mean 13868.921676                       # Table walker service (enqueue to completion) latency
system.cpu.itb.walker.walkCompletionTime::gmean 10629.832380                       # Table walker service (enqueue to completion) latency
system.cpu.itb.walker.walkCompletionTime::stdev 15843.735980                       # Table walker service (enqueue to completion) latency
system.cpu.itb.walker.walkCompletionTime::0-16383         1018     92.71%     92.71% # Table walker service (enqueue to completion) latency
system.cpu.itb.walker.walkCompletionTime::16384-32767           59      5.37%     98.09% # Table walker service (enqueue to completion) latency
system.cpu.itb.walker.walkCompletionTime::32768-49151            1      0.09%     98.18% # Table walker service (enqueue to completion) latency
system.cpu.itb.walker.walkCompletionTime::65536-81919            2      0.18%     98.36% # Table walker service (enqueue to completion) latency
system.cpu.itb.walker.walkCompletionTime::81920-98303            4      0.36%     98.72% # Table walker service (enqueue to completion) latency
system.cpu.itb.walker.walkCompletionTime::98304-114687            8      0.73%     99.45% # Table walker service (enqueue to completion) latency
system.cpu.itb.walker.walkCompletionTime::114688-131071            3      0.27%     99.73% # Table walker service (enqueue to completion) latency
system.cpu.itb.walker.walkCompletionTime::180224-196607            2      0.18%     99.91% # Table walker service (enqueue to completion) latency
system.cpu.itb.walker.walkCompletionTime::196608-212991            1      0.09%    100.00% # Table walker service (enqueue to completion) latency
system.cpu.itb.walker.walkCompletionTime::total         1098                       # Table walker service (enqueue to completion) latency
system.cpu.itb.walker.walksPending::samples   -518817161                       # Table walker pending requests distribution
system.cpu.itb.walker.walksPending::mean    -3.431136                       # Table walker pending requests distribution
system.cpu.itb.walker.walksPending::0     -2298672681    443.06%    443.06% # Table walker pending requests distribution
system.cpu.itb.walker.walksPending::1      1779578828   -343.01%    100.05% # Table walker pending requests distribution
system.cpu.itb.walker.walksPending::2          276692     -0.05%    100.00% # Table walker pending requests distribution
system.cpu.itb.walker.walksPending::total   -518817161                       # Table walker pending requests distribution
system.cpu.itb.walker.walkPageSizes::4K           909     95.68%     95.68% # Table walker page sizes translated
system.cpu.itb.walker.walkPageSizes::1M            41      4.32%    100.00% # Table walker page sizes translated
system.cpu.itb.walker.walkPageSizes::total          950                       # Table walker page sizes translated
system.cpu.itb.walker.walkRequestOrigin_Requested::Data            0                       # Table walker requests started/completed, data/inst
system.cpu.itb.walker.walkRequestOrigin_Requested::Inst         1681                       # Table walker requests started/completed, data/inst
system.cpu.itb.walker.walkRequestOrigin_Requested::total         1681                       # Table walker requests started/completed, data/inst
system.cpu.itb.walker.walkRequestOrigin_Completed::Data            0                       # Table walker requests started/completed, data/inst
system.cpu.itb.walker.walkRequestOrigin_Completed::Inst          950                       # Table walker requests started/completed, data/inst
system.cpu.itb.walker.walkRequestOrigin_Completed::total          950                       # Table walker requests started/completed, data/inst
system.cpu.itb.walker.walkRequestOrigin::total         2631                       # Table walker requests started/completed, data/inst
system.cpu.itb.inst_hits                      4030428                       # ITB inst hits
system.cpu.itb.inst_misses                       1681                       # ITB inst misses
system.cpu.itb.read_hits                            0                       # DTB read hits
system.cpu.itb.read_misses                          0                       # DTB read misses
system.cpu.itb.write_hits                           0                       # DTB write hits
system.cpu.itb.write_misses                         0                       # DTB write misses
system.cpu.itb.flush_tlb                            0                       # Number of times complete TLB was flushed
system.cpu.itb.flush_tlb_mva                        0                       # Number of times TLB was flushed by MVA
system.cpu.itb.flush_tlb_mva_asid                 189                       # Number of times TLB was flushed by MVA & ASID
system.cpu.itb.flush_tlb_asid                       7                       # Number of times TLB was flushed by ASID
system.cpu.itb.flush_entries                      355                       # Number of entries that have been flushed from TLB
system.cpu.itb.align_faults                         0                       # Number of TLB faults due to alignment restrictions
system.cpu.itb.prefetch_faults                      0                       # Number of TLB faults due to prefetch
system.cpu.itb.domain_faults                     3128                       # Number of TLB faults due to domain restrictions
system.cpu.itb.perms_faults                      2842                       # Number of TLB faults due to permissions restrictions
system.cpu.itb.read_accesses                        0                       # DTB read accesses
system.cpu.itb.write_accesses                       0                       # DTB write accesses
system.cpu.itb.inst_accesses                  4032109                       # ITB inst accesses
system.cpu.itb.hits                           4030428                       # DTB hits
system.cpu.itb.misses                            1681                       # DTB misses
system.cpu.itb.accesses                       4032109                       # DTB accesses
system.cpu.numPwrStateTransitions                6678                       # Number of power state transitions
system.cpu.pwrStateClkGateDist::samples          3339                       # Distribution of time spent in the clock gated state
system.cpu.pwrStateClkGateDist::mean     1028960429.567535                       # Distribution of time spent in the clock gated state
system.cpu.pwrStateClkGateDist::stdev    1642791622.876679                       # Distribution of time spent in the clock gated state
system.cpu.pwrStateClkGateDist::underflows         2238     67.03%     67.03% # Distribution of time spent in the clock gated state
system.cpu.pwrStateClkGateDist::1000-5e+10         1101     32.97%    100.00% # Distribution of time spent in the clock gated state
system.cpu.pwrStateClkGateDist::min_value          314                       # Distribution of time spent in the clock gated state
system.cpu.pwrStateClkGateDist::max_value   7123128244                       # Distribution of time spent in the clock gated state
system.cpu.pwrStateClkGateDist::total            3339                       # Distribution of time spent in the clock gated state
system.cpu.pwrStateResidencyTicks::ON      7644495125                       # Cumulative time (in ticks) in various power states
system.cpu.pwrStateResidencyTicks::CLK_GATED 3435698874326                       # Cumulative time (in ticks) in various power states
system.cpu.numCycles                         24423996                       # number of cpu cycles simulated
system.cpu.numWorkItemsStarted                      0                       # number of work items this cpu started
system.cpu.numWorkItemsCompleted                    0                       # number of work items this cpu completed
system.cpu.fetch.icacheStallCycles            8840855                       # Number of cycles fetch is stalled on an Icache miss
system.cpu.fetch.Insts                       24494875                       # Number of instructions fetch has processed
system.cpu.fetch.Branches                     5103243                       # Number of branches that fetch encountered
system.cpu.fetch.predictedBranches            3096176                       # Number of branches that fetch has predicted taken
system.cpu.fetch.Cycles                      13234164                       # Number of cycles fetch has run and was not squashing or blocked
system.cpu.fetch.SquashCycles                  562316                       # Number of cycles fetch has spent squashing
system.cpu.fetch.TlbCycles                      26182                       # Number of cycles fetch has spent waiting for tlb
system.cpu.fetch.MiscStallCycles                41926                       # Number of cycles fetch has spent waiting on interrupts, or bad addresses, or out of MSHRs
system.cpu.fetch.PendingTrapStallCycles        151702                       # Number of stall cycles due to pending traps
system.cpu.fetch.PendingQuiesceStallCycles       199843                       # Number of stall cycles due to pending quiesce instructions
system.cpu.fetch.IcacheWaitRetryStallCycles          362                       # Number of stall cycles due to full MSHR
system.cpu.fetch.CacheLines                   4024073                       # Number of cache lines fetched
system.cpu.fetch.IcacheSquashes                100885                       # Number of outstanding Icache misses that were squashed
system.cpu.fetch.ItlbSquashes                     849                       # Number of outstanding ITLB misses that were squashed
system.cpu.fetch.rateDist::samples           22776192                       # Number of instructions fetched each cycle (Total)
system.cpu.fetch.rateDist::mean              1.325286                       # Number of instructions fetched each cycle (Total)
system.cpu.fetch.rateDist::stdev             2.579442                       # Number of instructions fetched each cycle (Total)
system.cpu.fetch.rateDist::underflows               0      0.00%      0.00% # Number of instructions fetched each cycle (Total)
system.cpu.fetch.rateDist::0                 16855087     74.00%     74.00% # Number of instructions fetched each cycle (Total)
system.cpu.fetch.rateDist::1                   508937      2.23%     76.24% # Number of instructions fetched each cycle (Total)
system.cpu.fetch.rateDist::2                   678202      2.98%     79.22% # Number of instructions fetched each cycle (Total)
system.cpu.fetch.rateDist::3                   951669      4.18%     83.39% # Number of instructions fetched each cycle (Total)
system.cpu.fetch.rateDist::4                   485700      2.13%     85.53% # Number of instructions fetched each cycle (Total)
system.cpu.fetch.rateDist::5                   488590      2.15%     87.67% # Number of instructions fetched each cycle (Total)
system.cpu.fetch.rateDist::6                   419093      1.84%     89.51% # Number of instructions fetched each cycle (Total)
system.cpu.fetch.rateDist::7                   546995      2.40%     91.91% # Number of instructions fetched each cycle (Total)
system.cpu.fetch.rateDist::8                  1841919      8.09%    100.00% # Number of instructions fetched each cycle (Total)
system.cpu.fetch.rateDist::overflows                0      0.00%    100.00% # Number of instructions fetched each cycle (Total)
system.cpu.fetch.rateDist::min_value                0                       # Number of instructions fetched each cycle (Total)
system.cpu.fetch.rateDist::max_value                8                       # Number of instructions fetched each cycle (Total)
system.cpu.fetch.rateDist::total             22776192                       # Number of instructions fetched each cycle (Total)
system.cpu.fetch.branchRate                  0.208944                       # Number of branch fetches per cycle
system.cpu.fetch.rate                        1.002902                       # Number of inst fetches per cycle
system.cpu.decode.IdleCycles                  6702667                       # Number of cycles decode is idle
system.cpu.decode.BlockedCycles              11238115                       # Number of cycles decode is blocked
system.cpu.decode.RunCycles                   4255323                       # Number of cycles decode is running
system.cpu.decode.UnblockCycles                352140                       # Number of cycles decode is unblocking
system.cpu.decode.SquashCycles                 227946                       # Number of cycles decode is squashing
system.cpu.decode.BranchResolved              1825866                       # Number of times decode resolved a branch
system.cpu.decode.BranchMispred                 54011                       # Number of times decode detected a branch misprediction
system.cpu.decode.DecodedInsts               25787849                       # Number of instructions handled by decode
system.cpu.decode.SquashedInsts                181856                       # Number of squashed instructions handled by decode
system.cpu.rename.SquashCycles                 227946                       # Number of cycles rename is squashing
system.cpu.rename.IdleCycles                  6947026                       # Number of cycles rename is idle
system.cpu.rename.BlockCycles                 1021828                       # Number of cycles rename is blocking
system.cpu.rename.serializeStallCycles        8814885                       # count of cycles rename stalled for serializing inst
system.cpu.rename.RunCycles                   4359400                       # Number of cycles rename is running
system.cpu.rename.UnblockCycles               1405106                       # Number of cycles rename is unblocking
system.cpu.rename.RenamedInsts               24989443                       # Number of instructions processed by rename
system.cpu.rename.ROBFullEvents                  3000                       # Number of times rename has blocked due to ROB full
system.cpu.rename.IQFullEvents                 348252                       # Number of times rename has blocked due to IQ full
system.cpu.rename.LQFullEvents                  90887                       # Number of times rename has blocked due to LQ full
system.cpu.rename.SQFullEvents                 808077                       # Number of times rename has blocked due to SQ full
system.cpu.rename.RenamedOperands            26456971                       # Number of destination operands rename has renamed
system.cpu.rename.RenameLookups             113542370                       # Number of register rename lookups that rename has made
system.cpu.rename.int_rename_lookups         27698300                       # Number of integer rename lookups
system.cpu.rename.fp_rename_lookups              6532                       # Number of floating rename lookups
system.cpu.rename.CommittedMaps              22358639                       # Number of HB maps that are committed
system.cpu.rename.UndoneMaps                  4098323                       # Number of HB maps that are undone due to squashing
system.cpu.rename.serializingInsts             271543                       # count of serializing insts renamed
system.cpu.rename.tempSerializingInsts         228973                       # count of temporary serializing insts renamed
system.cpu.rename.skidInsts                   2015120                       # count of insts added to the skid buffer
system.cpu.memDep0.insertedLoads              5011116                       # Number of loads inserted to the mem dependence unit.
system.cpu.memDep0.insertedStores             3824480                       # Number of stores inserted to the mem dependence unit.
system.cpu.memDep0.conflictingLoads           1393795                       # Number of conflicting loads.
system.cpu.memDep0.conflictingStores          1466039                       # Number of conflicting stores.
system.cpu.iq.iqInstsAdded                   24082029                       # Number of instructions added to the IQ (excludes non-spec)
system.cpu.iq.iqNonSpecInstsAdded              316068                       # Number of non-speculative instructions added to the IQ
system.cpu.iq.iqInstsIssued                  23242710                       # Number of instructions issued
system.cpu.iq.iqSquashedInstsIssued             32039                       # Number of squashed instructions issued
system.cpu.iq.iqSquashedInstsExamined         3219308                       # Number of squashed instructions iterated over during squash; mainly for profiling
system.cpu.iq.iqSquashedOperandsExamined      7529219                       # Number of squashed operands that are examined and possibly removed from graph
system.cpu.iq.iqSquashedNonSpecRemoved          33902                       # Number of squashed non-spec instructions that were removed
system.cpu.iq.issued_per_cycle::samples      22776192                       # Number of insts issued each cycle
system.cpu.iq.issued_per_cycle::mean         1.020483                       # Number of insts issued each cycle
system.cpu.iq.issued_per_cycle::stdev        1.692508                       # Number of insts issued each cycle
system.cpu.iq.issued_per_cycle::underflows            0      0.00%      0.00% # Number of insts issued each cycle
system.cpu.iq.issued_per_cycle::0            14145988     62.11%     62.11% # Number of insts issued each cycle
system.cpu.iq.issued_per_cycle::1             2794965     12.27%     74.38% # Number of insts issued each cycle
system.cpu.iq.issued_per_cycle::2             2065153      9.07%     83.45% # Number of insts issued each cycle
system.cpu.iq.issued_per_cycle::3             1337182      5.87%     89.32% # Number of insts issued each cycle
system.cpu.iq.issued_per_cycle::4             1091944      4.79%     94.11% # Number of insts issued each cycle
system.cpu.iq.issued_per_cycle::5              620769      2.73%     96.84% # Number of insts issued each cycle
system.cpu.iq.issued_per_cycle::6              349561      1.53%     98.37% # Number of insts issued each cycle
system.cpu.iq.issued_per_cycle::7              228134      1.00%     99.37% # Number of insts issued each cycle
system.cpu.iq.issued_per_cycle::8              142496      0.63%    100.00% # Number of insts issued each cycle
system.cpu.iq.issued_per_cycle::overflows            0      0.00%    100.00% # Number of insts issued each cycle
system.cpu.iq.issued_per_cycle::min_value            0                       # Number of insts issued each cycle
system.cpu.iq.issued_per_cycle::max_value            8                       # Number of insts issued each cycle
system.cpu.iq.issued_per_cycle::total        22776192                       # Number of insts issued each cycle
system.cpu.iq.fu_full::No_OpClass                   0      0.00%      0.00% # attempts to use FU when none available
system.cpu.iq.fu_full::IntAlu                   64049     13.93%     13.93% # attempts to use FU when none available
system.cpu.iq.fu_full::IntMult                     37      0.01%     13.94% # attempts to use FU when none available
system.cpu.iq.fu_full::IntDiv                       0      0.00%     13.94% # attempts to use FU when none available
system.cpu.iq.fu_full::FloatAdd                     0      0.00%     13.94% # attempts to use FU when none available
system.cpu.iq.fu_full::FloatCmp                     0      0.00%     13.94% # attempts to use FU when none available
system.cpu.iq.fu_full::FloatCvt                     0      0.00%     13.94% # attempts to use FU when none available
system.cpu.iq.fu_full::FloatMult                    0      0.00%     13.94% # attempts to use FU when none available
system.cpu.iq.fu_full::FloatMultAcc                 0      0.00%     13.94% # attempts to use FU when none available
system.cpu.iq.fu_full::FloatDiv                     0      0.00%     13.94% # attempts to use FU when none available
system.cpu.iq.fu_full::FloatMisc                    0      0.00%     13.94% # attempts to use FU when none available
system.cpu.iq.fu_full::FloatSqrt                    0      0.00%     13.94% # attempts to use FU when none available
system.cpu.iq.fu_full::SimdAdd                      0      0.00%     13.94% # attempts to use FU when none available
system.cpu.iq.fu_full::SimdAddAcc                   0      0.00%     13.94% # attempts to use FU when none available
system.cpu.iq.fu_full::SimdAlu                      0      0.00%     13.94% # attempts to use FU when none available
system.cpu.iq.fu_full::SimdCmp                      0      0.00%     13.94% # attempts to use FU when none available
system.cpu.iq.fu_full::SimdCvt                      0      0.00%     13.94% # attempts to use FU when none available
system.cpu.iq.fu_full::SimdMisc                     0      0.00%     13.94% # attempts to use FU when none available
system.cpu.iq.fu_full::SimdMult                     0      0.00%     13.94% # attempts to use FU when none available
[...]
system.realview.ethernet2.descDmaWriteBytes            0                       # number of descriptor bytes write w/ DMA
system.realview.ethernet2.postedSwi                 0                       # number of software interrupts posted to CPU
system.realview.ethernet2.coalescedSwi            nan                       # average number of Swi's coalesced into each post
system.realview.ethernet2.totalSwi                  0                       # total number of Swi written to ISR
system.realview.ethernet2.postedRxIdle              0                       # number of rxIdle interrupts posted to CPU
system.realview.ethernet2.coalescedRxIdle          nan                       # average number of RxIdle's coalesced into each post
system.realview.ethernet2.totalRxIdle               0                       # total number of RxIdle written to ISR
system.realview.ethernet2.postedRxOk                0                       # number of RxOk interrupts posted to CPU
system.realview.ethernet2.coalescedRxOk           nan                       # average number of RxOk's coalesced into each post
system.realview.ethernet2.totalRxOk                 0                       # total number of RxOk written to ISR
system.realview.ethernet2.postedRxDesc              0                       # number of RxDesc interrupts posted to CPU
system.realview.ethernet2.coalescedRxDesc          nan                       # average number of RxDesc's coalesced into each post
system.realview.ethernet2.totalRxDesc               0                       # total number of RxDesc written to ISR
system.realview.ethernet2.postedTxOk                0                       # number of TxOk interrupts posted to CPU
system.realview.ethernet2.coalescedTxOk           nan                       # average number of TxOk's coalesced into each post
system.realview.ethernet2.totalTxOk                 0                       # total number of TxOk written to ISR
system.realview.ethernet2.postedTxIdle              0                       # number of TxIdle interrupts posted to CPU
system.realview.ethernet2.coalescedTxIdle          nan                       # average number of TxIdle's coalesced into each post
system.realview.ethernet2.totalTxIdle               0                       # total number of TxIdle written to ISR
system.realview.ethernet2.postedTxDesc              0                       # number of TxDesc interrupts posted to CPU
system.realview.ethernet2.coalescedTxDesc          nan                       # average number of TxDesc's coalesced into each post
system.realview.ethernet2.totalTxDesc               0                       # total number of TxDesc written to ISR
system.realview.ethernet2.postedRxOrn               0                       # number of RxOrn posted to CPU
system.realview.ethernet2.coalescedRxOrn          nan                       # average number of RxOrn's coalesced into each post
system.realview.ethernet2.totalRxOrn                0                       # total number of RxOrn written to ISR
system.realview.ethernet2.coalescedTotal          nan                       # average number of interrupts coalesced into each post
system.realview.ethernet2.postedInterrupts            0                       # number of posts to CPU
system.realview.ethernet2.droppedPackets            0                       # number of packets dropped
system.realview.ethernet3.pwrStateResidencyTicks::UNDEFINED 39323813236154                       # Cumulative time (in ticks) in various power states
system.realview.ethernet3.descDMAReads              0                       # Number of descriptors the device read w/ DMA
system.realview.ethernet3.descDMAWrites             0                       # Number of descriptors the device wrote w/ DMA
system.realview.ethernet3.descDmaReadBytes            0                       # number of descriptor bytes read w/ DMA
system.realview.ethernet3.descDmaWriteBytes            0                       # number of descriptor bytes write w/ DMA
system.realview.ethernet3.postedSwi                 0                       # number of software interrupts posted to CPU
system.realview.ethernet3.coalescedSwi            nan                       # average number of Swi's coalesced into each post
system.realview.ethernet3.totalSwi                  0                       # total number of Swi written to ISR
system.realview.ethernet3.postedRxIdle              0                       # number of rxIdle interrupts posted to CPU
system.realview.ethernet3.coalescedRxIdle          nan                       # average number of RxIdle's coalesced into each post
system.realview.ethernet3.totalRxIdle               0                       # total number of RxIdle written to ISR
system.realview.ethernet3.postedRxOk                0                       # number of RxOk interrupts posted to CPU
system.realview.ethernet3.coalescedRxOk           nan                       # average number of RxOk's coalesced into each post
system.realview.ethernet3.totalRxOk                 0                       # total number of RxOk written to ISR
system.realview.ethernet3.postedRxDesc              0                       # number of RxDesc interrupts posted to CPU
system.realview.ethernet3.coalescedRxDesc          nan                       # average number of RxDesc's coalesced into each post
system.realview.ethernet3.totalRxDesc               0                       # total number of RxDesc written to ISR
system.realview.ethernet3.postedTxOk                0                       # number of TxOk interrupts posted to CPU
system.realview.ethernet3.coalescedTxOk           nan                       # average number of TxOk's coalesced into each post
system.realview.ethernet3.totalTxOk                 0                       # total number of TxOk written to ISR
system.realview.ethernet3.postedTxIdle              0                       # number of TxIdle interrupts posted to CPU
system.realview.ethernet3.coalescedTxIdle          nan                       # average number of TxIdle's coalesced into each post
system.realview.ethernet3.totalTxIdle               0                       # total number of TxIdle written to ISR
system.realview.ethernet3.postedTxDesc              0                       # number of TxDesc interrupts posted to CPU
system.realview.ethernet3.coalescedTxDesc          nan                       # average number of TxDesc's coalesced into each post
system.realview.ethernet3.totalTxDesc               0                       # total number of TxDesc written to ISR
system.realview.ethernet3.postedRxOrn               0                       # number of RxOrn posted to CPU
system.realview.ethernet3.coalescedRxOrn          nan                       # average number of RxOrn's coalesced into each post
system.realview.ethernet3.totalRxOrn                0                       # total number of RxOrn written to ISR
system.realview.ethernet3.coalescedTotal          nan                       # average number of interrupts coalesced into each post
system.realview.ethernet3.postedInterrupts            0                       # number of posts to CPU
system.realview.ethernet3.droppedPackets            0                       # number of packets dropped
system.realview.ethernet5.pwrStateResidencyTicks::UNDEFINED 39323813236154                       # Cumulative time (in ticks) in various power states
system.realview.ethernet5.descDMAReads              0                       # Number of descriptors the device read w/ DMA
system.realview.ethernet5.descDMAWrites             0                       # Number of descriptors the device wrote w/ DMA
system.realview.ethernet5.descDmaReadBytes            0                       # number of descriptor bytes read w/ DMA
system.realview.ethernet5.descDmaWriteBytes            0                       # number of descriptor bytes write w/ DMA
system.realview.ethernet5.postedSwi                 0                       # number of software interrupts posted to CPU
system.realview.ethernet5.coalescedSwi            nan                       # average number of Swi's coalesced into each post
system.realview.ethernet5.totalSwi                  0                       # total number of Swi written to ISR
system.realview.ethernet5.postedRxIdle              0                       # number of rxIdle interrupts posted to CPU
system.realview.ethernet5.coalescedRxIdle          nan                       # average number of RxIdle's coalesced into each post
system.realview.ethernet5.totalRxIdle               0                       # total number of RxIdle written to ISR
system.realview.ethernet5.postedRxOk                0                       # number of RxOk interrupts posted to CPU
system.realview.ethernet5.coalescedRxOk           nan                       # average number of RxOk's coalesced into each post
system.realview.ethernet5.totalRxOk                 0                       # total number of RxOk written to ISR
system.realview.ethernet5.postedRxDesc              0                       # number of RxDesc interrupts posted to CPU
system.realview.ethernet5.coalescedRxDesc          nan                       # average number of RxDesc's coalesced into each post
system.realview.ethernet5.totalRxDesc               0                       # total number of RxDesc written to ISR
system.realview.ethernet5.postedTxOk                0                       # number of TxOk interrupts posted to CPU
system.realview.ethernet5.coalescedTxOk           nan                       # average number of TxOk's coalesced into each post
system.realview.ethernet5.totalTxOk                 0                       # total number of TxOk written to ISR
system.realview.ethernet5.postedTxIdle              0                       # number of TxIdle interrupts posted to CPU
system.realview.ethernet5.coalescedTxIdle          nan                       # average number of TxIdle's coalesced into each post
system.realview.ethernet5.totalTxIdle               0                       # total number of TxIdle written to ISR
system.realview.ethernet5.postedTxDesc              0                       # number of TxDesc interrupts posted to CPU
system.realview.ethernet5.coalescedTxDesc          nan                       # average number of TxDesc's coalesced into each post
system.realview.ethernet5.totalTxDesc               0                       # total number of TxDesc written to ISR
system.realview.ethernet5.postedRxOrn               0                       # number of RxOrn posted to CPU
system.realview.ethernet5.coalescedRxOrn          nan                       # average number of RxOrn's coalesced into each post
system.realview.ethernet5.totalRxOrn                0                       # total number of RxOrn written to ISR
system.realview.ethernet5.coalescedTotal          nan                       # average number of interrupts coalesced into each post
system.realview.ethernet5.postedInterrupts            0                       # number of posts to CPU
system.realview.ethernet5.droppedPackets            0                       # number of packets dropped
system.realview.gic.pwrStateResidencyTicks::UNDEFINED 39323813236154                       # Cumulative time (in ticks) in various power states
system.realview.gicv2m.pwrStateResidencyTicks::UNDEFINED 39323813236154                       # Cumulative time (in ticks) in various power states
system.realview.hdlcd.pwrStateResidencyTicks::UNDEFINED 39323813236154                       # Cumulative time (in ticks) in various power states
system.realview.ide.pwrStateResidencyTicks::UNDEFINED 39323813236154                       # Cumulative time (in ticks) in various power states
system.realview.kmi0.pwrStateResidencyTicks::UNDEFINED 39323813236154                       # Cumulative time (in ticks) in various power states
system.realview.kmi1.pwrStateResidencyTicks::UNDEFINED 39323813236154                       # Cumulative time (in ticks) in various power states
system.realview.mcc.osc_clcd.clock              42105                       # Clock period in ticks
system.realview.mcc.osc_mcc.clock               20000                       # Clock period in ticks
system.realview.mcc.osc_peripheral.clock        41667                       # Clock period in ticks
system.realview.mcc.osc_system_bus.clock        41667                       # Clock period in ticks
system.realview.rtc.pwrStateResidencyTicks::UNDEFINED 39323813236154                       # Cumulative time (in ticks) in various power states
system.realview.uart0.pwrStateResidencyTicks::UNDEFINED 39323813236154                       # Cumulative time (in ticks) in various power states
system.realview.vgic.pwrStateResidencyTicks::UNDEFINED 39323813236154                       # Cumulative time (in ticks) in various power states
system.switch.pwrStateResidencyTicks::UNDEFINED 39323813236154                       # Cumulative time (in ticks) in various power states
system.tol2bus.snoop_filter.tot_requests       566987                       # Total number of requests made to the snoop filter.
system.tol2bus.snoop_filter.hit_single_requests       286225                       # Number of requests hitting in the snoop filter with a single holder of the requested data.
system.tol2bus.snoop_filter.hit_multi_requests        14733                       # Number of requests hitting in the snoop filter with multiple (>1) holders of the requested data.
system.tol2bus.snoop_filter.tot_snoops             12                       # Total number of snoops made to the snoop filter.
system.tol2bus.snoop_filter.hit_single_snoops           12                       # Number of snoops hitting in the snoop filter with a single holder of the requested data.
system.tol2bus.snoop_filter.hit_multi_snoops            0                       # Number of snoops hitting in the snoop filter with multiple (>1) holders of the requested data.
system.tol2bus.pwrStateResidencyTicks::UNDEFINED 39323813236154                       # Cumulative time (in ticks) in various power states
system.tol2bus.trans_dist::ReadReq              26498                       # Transaction distribution
system.tol2bus.trans_dist::ReadResp            298517                       # Transaction distribution
system.tol2bus.trans_dist::WriteReq              4907                       # Transaction distribution
system.tol2bus.trans_dist::WriteResp             4907                       # Transaction distribution
system.tol2bus.trans_dist::WritebackDirty        31215                       # Transaction distribution
system.tol2bus.trans_dist::WritebackClean       225263                       # Transaction distribution
system.tol2bus.trans_dist::CleanEvict           26155                       # Transaction distribution
system.tol2bus.trans_dist::UpgradeReq             200                       # Transaction distribution
system.tol2bus.trans_dist::UpgradeResp            200                       # Transaction distribution
system.tol2bus.trans_dist::ReadExReq             8767                       # Transaction distribution
system.tol2bus.trans_dist::ReadExResp            8767                       # Transaction distribution
system.tol2bus.trans_dist::ReadCleanReq        225519                       # Transaction distribution
system.tol2bus.trans_dist::ReadSharedReq        46510                       # Transaction distribution
system.tol2bus.trans_dist::InvalidateReq           16                       # Transaction distribution
system.tol2bus.pkt_count_system.cpu.icache.mem_side::system.l2.cpu_side       676301                       # Packet count per connected master and slave (bytes)
system.tol2bus.pkt_count_system.cpu.dcache.mem_side::system.l2.cpu_side       184547                       # Packet count per connected master and slave (bytes)
system.tol2bus.pkt_count_system.cpu.itb.walker.dma::system.l2.cpu_side         5129                       # Packet count per connected master and slave (bytes)
system.tol2bus.pkt_count_system.cpu.dtb.walker.dma::system.l2.cpu_side        34066                       # Packet count per connected master and slave (bytes)
system.tol2bus.pkt_count::total                900043                       # Packet count per connected master and slave (bytes)
system.tol2bus.pkt_size_system.cpu.icache.mem_side::system.l2.cpu_side     57700096                       # Cumulative packet size per connected master and slave (bytes)
system.tol2bus.pkt_size_system.cpu.dcache.mem_side::system.l2.cpu_side     11006368                       # Cumulative packet size per connected master and slave (bytes)
system.tol2bus.pkt_size_system.cpu.itb.walker.dma::system.l2.cpu_side         8920                       # Cumulative packet size per connected master and slave (bytes)
system.tol2bus.pkt_size_system.cpu.dtb.walker.dma::system.l2.cpu_side        60004                       # Cumulative packet size per connected master and slave (bytes)
system.tol2bus.pkt_size::total               68775388                       # Cumulative packet size per connected master and slave (bytes)
system.tol2bus.snoops                            7410                       # Total snoops (count)
system.tol2bus.snoopTraffic                    115956                       # Total snoop traffic (bytes)
system.tol2bus.snoop_fanout::samples           316055                       # Request fanout histogram
system.tol2bus.snoop_fanout::mean            0.065678                       # Request fanout histogram
system.tol2bus.snoop_fanout::stdev           0.247720                       # Request fanout histogram
system.tol2bus.snoop_fanout::underflows             0      0.00%      0.00% # Request fanout histogram
system.tol2bus.snoop_fanout::0                 295297     93.43%     93.43% # Request fanout histogram
system.tol2bus.snoop_fanout::1                  20758      6.57%    100.00% # Request fanout histogram
system.tol2bus.snoop_fanout::2                      0      0.00%    100.00% # Request fanout histogram
system.tol2bus.snoop_fanout::overflows              0      0.00%    100.00% # Request fanout histogram
system.tol2bus.snoop_fanout::min_value              0                       # Request fanout histogram
system.tol2bus.snoop_fanout::max_value              1                       # Request fanout histogram
system.tol2bus.snoop_fanout::total             316055                       # Request fanout histogram
system.tol2bus.reqLayer0.occupancy          507591848                       # Layer occupancy (ticks)
system.tol2bus.reqLayer0.utilization              0.0                       # Layer utilization (%)
system.tol2bus.snoopLayer0.occupancy            20378                       # Layer occupancy (ticks)
system.tol2bus.snoopLayer0.utilization            0.0                       # Layer utilization (%)
system.tol2bus.respLayer0.occupancy         353045045                       # Layer occupancy (ticks)
system.tol2bus.respLayer0.utilization             0.0                       # Layer utilization (%)
system.tol2bus.respLayer1.occupancy          92123929                       # Layer occupancy (ticks)
system.tol2bus.respLayer1.utilization             0.0                       # Layer utilization (%)
system.tol2bus.respLayer2.occupancy           1821949                       # Layer occupancy (ticks)
system.tol2bus.respLayer2.utilization             0.0                       # Layer utilization (%)
system.tol2bus.respLayer3.occupancy          11968643                       # Layer occupancy (ticks)
system.tol2bus.respLayer3.utilization             0.0                       # Layer utilization (%)
system.cpu.kern.inst.arm                            0                       # number of arm instructions executed
system.cpu.kern.inst.quiesce                     3339                       # number of quiesce instructions executed

---------- End Simulation Statistics   ----------
